Title
     RDKit          3D

 36 36  0  0  0  0  0  0  0  0999 V2000
    2.6061    0.5303    0.0000 C   0  0  0  0  0  0  0  0  0  0  0  0
    4.0012    0.5303    0.0000 C   0  0  0  0  0  0  0  0  0  0  0  0
    4.6988    1.7381    0.0000 C   0  0  0  0  0  0  0  0  0  0  0  0
    4.0011    2.9466   -0.0012 C   0  0  0  0  0  0  0  0  0  0  0  0
    2.6063    2.9465   -0.0017 C   0  0  0  0  0  0  0  0  0  0  0  0
    1.9087    1.7383   -0.0007 C   0  0  0  0  0  0  0  0  0  0  0  0
    4.5507   -0.4222    0.0013 H   0  0  0  0  0  0  0  0  0  0  0  0
    5.7984    1.7381    0.0006 H   0  0  0  0  0  0  0  0  0  0  0  0
    4.5513    3.8987   -0.0013 H   0  0  0  0  0  0  0  0  0  0  0  0
    2.0562    3.8988   -0.0026 H   0  0  0  0  0  0  0  0  0  0  0  0
    0.8091    1.7385   -0.0009 H   0  0  0  0  0  0  0  0  0  0  0  0
    0.5607   -0.6631    0.8530 C   0  0  1  0  0  0  0  0  0  0  0  0
   -0.0615    0.1041    0.4413 H   0  0  0  0  0  0  0  0  0  0  0  0
    0.8282   -0.4046    1.8567 H   0  0  0  0  0  0  0  0  0  0  0  0
   -0.1478   -1.9047    0.8532 O   0  0  0  0  0  0  0  0  0  0  0  0
    1.8361   -0.8034    0.0006 C   0  0  2  0  0  0  0  0  0  0  0  0
    2.4573   -1.5738    0.4114 H   0  0  0  0  0  0  0  0  0  0  0  0
    1.5659   -1.0613   -1.0028 H   0  0  0  0  0  0  0  0  0  0  0  0
   -1.3465   -1.7777    1.6213 C   0  0  2  0  0  0  0  0  0  0  0  0
   -1.9723   -1.0263    1.1861 H   0  0  0  0  0  0  0  0  0  0  0  0
   -1.1023   -1.5005    2.6250 H   0  0  0  0  0  0  0  0  0  0  0  0
   -2.0912   -3.1268    1.6278 C   0  0  2  0  0  0  0  0  0  0  0  0
   -2.9900   -3.0347    2.1978 H   0  0  0  0  0  0  0  0  0  0  0  0
   -1.4661   -3.8777    2.0655 H   0  0  0  0  0  0  0  0  0  0  0  0
   -2.4120   -3.5021    0.2864 O   0  0  0  0  0  0  0  0  0  0  0  0
   -3.0952   -4.7588    0.2967 C   0  0  1  0  0  0  0  0  0  0  0  0
   -2.4713   -5.4984    0.7532 H   0  0  0  0  0  0  0  0  0  0  0  0
   -4.0032   -4.6657    0.8535 H   0  0  0  0  0  0  0  0  0  0  0  0
   -3.4148   -5.1804   -1.1494 C   0  0  1  0  0  0  0  0  0  0  0  0
   -2.5042   -5.2684   -1.7002 H   0  0  0  0  0  0  0  0  0  0  0  0
   -3.9217   -6.1229   -1.1423 H   0  0  0  0  0  0  0  0  0  0  0  0
   -4.2509   -4.1979   -1.7703 O   0  0  0  0  0  0  0  0  0  0  0  0
   -4.4769   -4.5762   -3.1324 C   0  0  2  0  0  0  0  0  0  0  0  0
   -4.9526   -5.5341   -3.1622 H   0  0  0  0  0  0  0  0  0  0  0  0
   -3.5410   -4.6264   -3.6486 H   0  0  0  0  0  0  0  0  0  0  0  0
   -5.1059   -3.8507   -3.6044 H   0  0  0  0  0  0  0  0  0  0  0  0
  1  2  2  0
  1  6  1  0
  2  3  1  0
  2  7  1  0
  3  4  2  0
  3  8  1  0
  4  5  1  0
  4  9  1  0
  5  6  2  0
  5 10  1  0
  6 11  1  0
 12 13  1  6
 12 14  1  0
 12 15  1  0
 12 16  1  0
 15 19  1  0
 16 17  1  1
 16 18  1  0
 19 20  1  6
 19 21  1  0
 19 22  1  0
 22 23  1  1
 22 24  1  0
 22 25  1  0
 25 26  1  0
 26 27  1  1
 26 28  1  0
 26 29  1  0
 29 30  1  6
 29 31  1  0
 29 32  1  0
 32 33  1  0
 33 34  1  1
 33 35  1  0
 33 36  1  0
  1 16  1  0
M  END
