Title
 OpenBabel03252621073D
Created by GaussView 6.0.16
 26 25  0  0  0  0  0  0  0  0999 V2000
    0.4582   -0.6282    2.0267 C   0  0  0  0  0  0  0  0  0  0  0  0
   -0.5244   -1.0325    2.1540 H   0  0  0  0  0  0  0  0  0  0  0  0
    0.3857    0.3896    1.7032 H   0  0  0  0  0  0  0  0  0  0  0  0
    1.1632   -0.6844    3.2691 O   0  0  0  0  0  0  0  0  0  0  0  0
    1.2198   -1.4508    0.9701 C   0  0  0  0  0  0  0  0  0  0  0  0
    0.6964   -1.4089    0.0367 H   0  0  0  0  0  0  0  0  0  0  0  0
    2.2047   -1.0475    0.8453 H   0  0  0  0  0  0  0  0  0  0  0  0
    1.2905   -2.4683    1.2956 H   0  0  0  0  0  0  0  0  0  0  0  0
    0.4512    0.0555    4.2633 C   0  0  0  0  0  0  0  0  0  0  0  0
   -0.5200   -0.3728    4.4009 H   0  0  0  0  0  0  0  0  0  0  0  0
    0.3506    1.0733    3.9503 H   0  0  0  0  0  0  0  0  0  0  0  0
    1.2301    0.0014    5.5919 C   0  0  0  0  0  0  0  0  0  0  0  0
    0.6988    0.5502    6.3388 H   0  0  0  0  0  0  0  0  0  0  0  0
    2.2005    0.4323    5.4548 H   0  0  0  0  0  0  0  0  0  0  0  0
    1.3715   -1.3587    6.0079 O   0  0  0  0  0  0  0  0  0  0  0  0
    2.1024   -1.4046    7.2366 C   0  0  0  0  0  0  0  0  0  0  0  0
    3.0628   -0.9547    7.0955 H   0  0  0  0  0  0  0  0  0  0  0  0
    1.5654   -0.8693    7.9904 H   0  0  0  0  0  0  0  0  0  0  0  0
    2.2829   -2.8708    7.6713 C   0  0  0  0  0  0  0  0  0  0  0  0
    2.8169   -3.4000    6.9129 H   0  0  0  0  0  0  0  0  0  0  0  0
    2.8339   -2.9057    8.5881 H   0  0  0  0  0  0  0  0  0  0  0  0
    1.0032   -3.4832    7.8645 O   0  0  0  0  0  0  0  0  0  0  0  0
    1.1954   -4.8616    8.1998 C   0  0  0  0  0  0  0  0  0  0  0  0
    1.7751   -4.9331    9.0963 H   0  0  0  0  0  0  0  0  0  0  0  0
    1.7103   -5.3544    7.4018 H   0  0  0  0  0  0  0  0  0  0  0  0
    0.2443   -5.3276    8.3520 H   0  0  0  0  0  0  0  0  0  0  0  0
  1  2  1  0  0  0  0
  1  3  1  0  0  0  0
  1  4  1  0  0  0  0
  1  5  1  0  0  0  0
  4  9  1  0  0  0  0
  5  6  1  0  0  0  0
  5  7  1  0  0  0  0
  5  8  1  0  0  0  0
  9 10  1  0  0  0  0
  9 11  1  0  0  0  0
  9 12  1  0  0  0  0
 12 13  1  0  0  0  0
 12 14  1  0  0  0  0
 12 15  1  0  0  0  0
 15 16  1  0  0  0  0
 16 17  1  0  0  0  0
 16 18  1  0  0  0  0
 16 19  1  0  0  0  0
 19 20  1  0  0  0  0
 19 21  1  0  0  0  0
 19 22  1  0  0  0  0
 22 23  1  0  0  0  0
 23 24  1  0  0  0  0
 23 25  1  0  0  0  0
 23 26  1  0  0  0  0
M  END
