Title
 OpenBabel03252621073D
Created by GaussView 6.0.16
 12 12  0  0  0  0  0  0  0  0999 V2000
    2.6061    0.5303    0.0000 C   0  0  0  0  0  0  0  0  0  0  0  0
    4.0012    0.5303    0.0000 C   0  0  0  0  0  0  0  0  0  0  0  0
    4.6988    1.7381    0.0000 C   0  0  0  0  0  0  0  0  0  0  0  0
    4.0011    2.9466   -0.0012 C   0  0  0  0  0  0  0  0  0  0  0  0
    2.6063    2.9465   -0.0017 C   0  0  0  0  0  0  0  0  0  0  0  0
    1.9087    1.7383   -0.0007 C   0  0  0  0  0  0  0  0  0  0  0  0
    2.0563   -0.4220    0.0004 H   0  0  0  0  0  0  0  0  0  0  0  0
    4.5507   -0.4222    0.0013 H   0  0  0  0  0  0  0  0  0  0  0  0
    5.7984    1.7381    0.0006 H   0  0  0  0  0  0  0  0  0  0  0  0
    4.5513    3.8987   -0.0013 H   0  0  0  0  0  0  0  0  0  0  0  0
    2.0562    3.8988   -0.0026 H   0  0  0  0  0  0  0  0  0  0  0  0
    0.8091    1.7385   -0.0009 H   0  0  0  0  0  0  0  0  0  0  0  0
  1  2  2  0  0  0  0
  1  6  1  0  0  0  0
  1  7  1  0  0  0  0
  2  3  1  0  0  0  0
  2  8  1  0  0  0  0
  3  4  2  0  0  0  0
  3  9  1  0  0  0  0
  4  5  1  0  0  0  0
  4 10  1  0  0  0  0
  5  6  2  0  0  0  0
  5 11  1  0  0  0  0
  6 12  1  0  0  0  0
M  END
